<?xml version="1.0" encoding="UTF-8"?>

<!-- generated on 2025-12-25T17:23:19.253437+08:00 by Eclipse SUMO netconvert 1.25.0
<netconvertConfiguration xmlns:xsi="http://www.w3.org/2001/XMLSchema-instance" xsi:noNamespaceSchemaLocation="http://sumo.dlr.de/xsd/netconvertConfiguration.xsd">

    <input>
        <sumo-net-file value="sumo.net.xml"/>
    </input>

    <output>
        <opendrive-output value="sumo_map.xodr"/>
    </output>

    <processing>
        <geometry.min-radius.fix.railways value="false"/>
        <geometry.avoid-overlap value="false"/>
        <geometry.max-grade.fix value="false"/>
        <offset.disable-normalization value="true"/>
        <lefthand value="0"/>
    </processing>

    <junctions>
        <no-turnarounds value="true"/>
        <junctions.corner-detail value="0"/>
        <junctions.limit-turn-speed value="-1.00"/>
    </junctions>

    <pedestrian>
        <walkingareas value="0"/>
    </pedestrian>

</netconvertConfiguration>
-->

<OpenDRIVE>
    <header revMajor="1" revMinor="4" name="" version="1.00" date="Thu Dec 25 17:23:19 2025" north="418.51" south="0.00" east="340.00" west="0.00"/>
    <road name="" length="72.23288685" id="230" junction="-1">
        <link>
            <predecessor elementType="junction" elementId="1"/>
            <successor elementType="junction" elementId="2"/>
        </link>
        <type s="0" type="town"/>
        <planView>
            <geometry s="0.00000000" x="119.38534473" y="232.95762442" hdg="-3.09125737" length="12.87164735">
                <line/>
            </geometry>
            <geometry s="12.87164735" x="106.53000000" y="232.31000000" hdg="-3.09125737" length="3.97489282">
                <paramPoly3 aU="-0.00000000" bU="2.97942633" cU="2.95606461" dU="-1.98128636" aV="0.00000000" bV="-0.00000000" cV="0.71092724" dV="-0.32939597" pRange="normalized"/>
            </geometry>
            <geometry s="16.84654018" x="102.60000000" y="231.73000000" hdg="-2.94518475" length="3.98099495">
                <paramPoly3 aU="-0.00000000" bU="2.98500942" cU="2.98437850" dU="-1.99430756" aV="0.00000000" bV="0.00000000" cV="0.30378029" dV="-0.10569921" pRange="normalized"/>
            </geometry>
            <geometry s="20.82753512" x="98.74000000" y="230.76000000" hdg="-2.84772332" length="3.97043874">
                <paramPoly3 aU="-0.00000000" bU="2.97708435" cU="2.97779961" dU="-1.98997186" aV="0.00000000" bV="0.00000000" cV="0.27737754" dV="-0.08771463" pRange="normalized"/>
            </geometry>
            <geometry s="24.79797387" x="95.00000000" y="229.43000000" hdg="-2.74961406" length="3.97319407">
                <paramPoly3 aU="-0.00000000" bU="2.97912424" cU="2.97889983" dU="-1.99087751" aV="0.00000000" bV="-0.00000000" cV="0.30194607" dV="-0.10232606" pRange="normalized"/>
            </geometry>
            <geometry s="28.77116794" x="91.41000000" y="227.73000000" hdg="-2.64978348" length="3.97974622">
                <paramPoly3 aU="-0.00000000" bU="2.98407649" cU="2.98356982" dU="-1.99374571" aV="0.00000000" bV="-0.00000000" cV="0.30055736" dV="-0.10379844" pRange="normalized"/>
            </geometry>
            <geometry s="32.75091416" x="88.00000000" y="225.68000000" hdg="-2.55254183" length="3.96906124">
                <paramPoly3 aU="-0.00000000" bU="2.97606389" cU="2.97648732" dU="-1.98901698" aV="0.00000000" bV="-0.00000000" cV="0.28085962" dV="-0.09086909" pRange="normalized"/>
            </geometry>
            <geometry s="36.71997540" x="84.81000000" y="223.32000000" hdg="-2.45524263" length="3.97988325">
                <paramPoly3 aU="-0.00000000" bU="2.98415189" cU="2.98429429" dU="-1.99440489" aV="0.00000000" bV="-0.00000000" cV="0.29275417" dV="-0.09680557" pRange="normalized"/>
            </geometry>
            <geometry s="40.69985865" x="81.86000000" y="220.65000000" hdg="-2.35619449" length="3.97988325">
                <paramPoly3 aU="-0.00000000" bU="2.98415189" cU="2.98399076" dU="-1.99420254" aV="0.00000000" bV="-0.00000000" cV="0.29887806" dV="-0.10088816" pRange="normalized"/>
            </geometry>
            <geometry s="44.67974190" x="79.19000000" y="217.70000000" hdg="-2.25714635" length="3.96906124">
                <paramPoly3 aU="-0.00000000" bU="2.97606389" cU="2.97561706" dU="-1.98843681" aV="0.00000000" bV="0.00000000" cV="0.29873385" dV="-0.10278525" pRange="normalized"/>
            </geometry>
            <geometry s="48.64880313" x="76.83000000" y="214.51000000" hdg="-2.15984715" length="3.97974622">
                <paramPoly3 aU="-0.00000000" bU="2.98407649" cU="2.98455785" dU="-1.99440440" aV="0.00000000" bV="-0.00000000" cV="0.28025217" dV="-0.09026165" pRange="normalized"/>
            </geometry>
            <geometry s="52.62854935" x="74.78000000" y="211.10000000" hdg="-2.06260550" length="3.97318004">
                <paramPoly3 aU="-0.00000000" bU="2.97912424" cU="2.97912670" dU="-1.99096145" aV="0.00000000" bV="-0.00000000" cV="0.29538571" dV="-0.09862679" pRange="normalized"/>
            </geometry>
            <geometry s="56.60172939" x="73.08000000" y="207.51000000" hdg="-1.96345732" length="3.98323266">
                <paramPoly3 aU="-0.00000000" bU="2.98666725" cU="2.98661568" dU="-1.99593138" aV="0.00000000" bV="0.00000000" cV="0.29616031" dV="-0.09924751" pRange="normalized"/>
            </geometry>
            <geometry s="60.58496205" x="71.74000000" y="203.76000000" hdg="-1.86466566" length="3.96888271">
                <paramPoly3 aU="-0.00000000" bU="2.97591268" cU="2.97574188" dU="-1.98863152" aV="0.00000000" bV="-0.00000000" cV="0.29650141" dV="-0.10016377" pRange="normalized"/>
            </geometry>
            <geometry s="64.55384476" x="70.78000000" y="199.91000000" hdg="-1.76621365" length="3.97486850">
                <paramPoly3 aU="-0.00000000" bU="2.97942633" cU="2.99648648" dU="-2.00809156" aV="0.00000000" bV="0.00000000" cV="0.15170572" dV="0.04244500" pRange="normalized"/>
            </geometry>
            <geometry s="68.52871326" x="70.20000000" y="195.98000000" hdg="-1.62113161" length="3.70417359">
                <line/>
            </geometry>
        </planView>
        <elevationProfile>
            <elevation s="0" a="0.00" b="0" c="0" d="0"/>
        </elevationProfile>
        <lateralProfile/>
        <lanes>
            <laneSection s="0">
                <center>
                    <lane id="0" type="none" level="true">
                        <link/>
                        <roadMark sOffset="0" type="solid" weight="standard" color="standard" width="0.13"/>
                    </lane>
                </center>
                <right>
                    <lane id="-1" type="driving" level="true">
                        <link/>
                        <width sOffset="0" a="5.38" b="0" c="0" d="0"/>
                        <roadMark sOffset="0" type="broken" weight="standard" color="standard" width="0.13"/>
                        <speed sOffset="0" max="13.90"/>
                    </lane>
                    <lane id="-2" type="driving" level="true">
                        <link/>
                        <width sOffset="0" a="5.38" b="0" c="0" d="0"/>
                        <roadMark sOffset="0" type="solid" weight="standard" color="standard" width="0.13"/>
                        <speed sOffset="0" max="13.90"/>
                    </lane>
                 </right>
            </laneSection>
        </lanes>
        <objects/>
        <signals/>
    </road>
    <road name="" length="68.59501297" id="231" junction="-1">
        <link>
            <predecessor elementType="junction" elementId="3"/>
            <successor elementType="junction" elementId="2"/>
        </link>
        <type s="0" type="town"/>
        <planView>
            <geometry s="0.00000000" x="70.00000000" y="123.14412603" hdg="1.57079633" length="68.59501297">
                <line/>
            </geometry>
        </planView>
        <elevationProfile>
            <elevation s="0" a="0.00" b="0" c="0" d="0"/>
        </elevationProfile>
        <lateralProfile/>
        <lanes>
            <laneSection s="0">
                <center>
                    <lane id="0" type="none" level="true">
                        <link/>
                        <roadMark sOffset="0" type="solid" weight="standard" color="standard" width="0.13"/>
                    </lane>
                </center>
                <right>
                    <lane id="-1" type="driving" level="true">
                        <link/>
                        <width sOffset="0" a="5.38" b="0" c="0" d="0"/>
                        <roadMark sOffset="0" type="broken" weight="standard" color="standard" width="0.13"/>
                        <speed sOffset="0" max="13.90"/>
                    </lane>
                    <lane id="-2" type="driving" level="true">
                        <link/>
                        <width sOffset="0" a="5.38" b="0" c="0" d="0"/>
                        <roadMark sOffset="0" type="solid" weight="standard" color="standard" width="0.13"/>
                        <speed sOffset="0" max="13.90"/>
                    </lane>
                 </right>
            </laneSection>
        </lanes>
        <objects/>
        <signals/>
    </road>
    <road name="" length="72.22816838" id="232" junction="-1">
        <link>
            <predecessor elementType="junction" elementId="4"/>
            <successor elementType="junction" elementId="5"/>
        </link>
        <type s="0" type="town"/>
        <planView>
            <geometry s="0.00000000" x="230.62140663" y="142.08507991" hdg="0.04782245" length="12.86329966">
                <line/>
            </geometry>
            <geometry s="12.86329966" x="243.47000000" y="142.70000000" hdg="0.04782245" length="3.97648562">
                <paramPoly3 aU="0.00000000" bU="2.98053057" cU="2.95238359" dU="-1.97920274" aV="0.00000000" bV="-0.00000000" cV="0.76312885" dV="-0.36167400" pRange="normalized"/>
            </geometry>
            <geometry s="16.83978528" x="247.40000000" y="143.29000000" hdg="0.19640791" length="3.97856918">
                <paramPoly3 aU="0.00000000" bU="2.98319041" cU="2.98397249" dU="-1.99403401" aV="0.00000000" bV="0.00000000" cV="0.27453407" dV="-0.08626074" pRange="normalized"/>
            </geometry>
            <geometry s="20.81835446" x="251.26000000" y="144.25000000" hdg="0.29386934" length="3.97382476">
                <paramPoly3 aU="0.00000000" bU="2.97960568" cU="2.97927940" dU="-1.99107640" aV="0.00000000" bV="0.00000000" cV="0.30239132" dV="-0.10315710" pRange="normalized"/>
            </geometry>
            <geometry s="24.79217922" x="255.00000000" y="145.59000000" hdg="0.39314320" length="3.97314776">
                <paramPoly3 aU="0.00000000" bU="2.97912424" cU="2.97892130" dU="-1.99066920" aV="0.00000000" bV="0.00000000" cV="0.29483058" dV="-0.09983085" pRange="normalized"/>
            </geometry>
            <geometry s="28.76532698" x="258.59000000" y="147.29000000" hdg="0.49069851" length="3.97462422">
                <paramPoly3 aU="0.00000000" bU="2.98021916" cU="2.98064656" dU="-1.99189853" aV="0.00000000" bV="-0.00000000" cV="0.28441823" dV="-0.09206578" pRange="normalized"/>
            </geometry>
            <geometry s="32.73995120" x="262.00000000" y="149.33000000" hdg="0.58905082" length="3.97503795">
                <paramPoly3 aU="0.00000000" bU="2.98053057" cU="2.98005892" dU="-1.99149954" aV="0.00000000" bV="-0.00000000" cV="0.30248113" dV="-0.10417592" pRange="normalized"/>
            </geometry>
            <geometry s="36.71498915" x="265.19000000" y="151.70000000" hdg="0.68732384" length="3.97986354">
                <paramPoly3 aU="0.00000000" bU="2.98415189" cU="2.98457513" dU="-1.99449680" aV="0.00000000" bV="0.00000000" cV="0.28403584" dV="-0.09195732" pRange="normalized"/>
            </geometry>
            <geometry s="40.69485268" x="268.14000000" y="154.37000000" hdg="0.78539816" length="3.97988325">
                <paramPoly3 aU="0.00000000" bU="2.98415189" cU="2.98399076" dU="-1.99420254" aV="0.00000000" bV="0.00000000" cV="0.29887806" dV="-0.10088816" pRange="normalized"/>
            </geometry>
            <geometry s="44.67473593" x="270.81000000" y="157.32000000" hdg="0.88444630" length="3.96906124">
                <paramPoly3 aU="0.00000000" bU="2.97606389" cU="2.97561706" dU="-1.98843681" aV="0.00000000" bV="-0.00000000" cV="0.29873385" dV="-0.10278525" pRange="normalized"/>
            </geometry>
            <geometry s="48.64379717" x="273.17000000" y="160.51000000" hdg="0.98174551" length="3.97974622">
                <paramPoly3 aU="0.00000000" bU="2.98407649" cU="2.98455785" dU="-1.99440440" aV="0.00000000" bV="0.00000000" cV="0.28025217" dV="-0.09026165" pRange="normalized"/>
            </geometry>
            <geometry s="52.62354339" x="275.22000000" y="163.92000000" hdg="1.07898715" length="3.97317022">
                <paramPoly3 aU="0.00000000" bU="2.97912424" cU="2.97898485" dU="-1.99081959" aV="0.00000000" bV="-0.00000000" cV="0.29681523" dV="-0.10005631" pRange="normalized"/>
            </geometry>
            <geometry s="56.59671360" x="276.92000000" y="167.51000000" hdg="1.17765313" length="3.97382476">
                <paramPoly3 aU="0.00000000" bU="2.97960568" cU="2.97991048" dU="-1.99149712" aV="0.00000000" bV="-0.00000000" cV="0.28968787" dV="-0.09468813" pRange="normalized"/>
            </geometry>
            <geometry s="60.57053836" x="278.26000000" y="171.25000000" hdg="1.27692699" length="3.97859389">
                <paramPoly3 aU="0.00000000" bU="2.98319041" cU="2.98272963" dU="-1.99332570" aV="0.00000000" bV="0.00000000" cV="0.30374986" dV="-0.10451564" pRange="normalized"/>
            </geometry>
            <geometry s="64.54913225" x="279.22000000" y="175.11000000" hdg="1.37562353" length="3.97486254">
                <paramPoly3 aU="0.00000000" bU="2.97942633" cU="2.99652331" dU="-2.00808103" aV="0.00000000" bV="0.00000000" cV="0.14951586" dV="0.04366459" pRange="normalized"/>
            </geometry>
            <geometry s="68.52399479" x="279.80000000" y="179.04000000" hdg="1.52046105" length="3.70417359">
                <line/>
            </geometry>
        </planView>
        <elevationProfile>
            <elevation s="0" a="0.00" b="0" c="0" d="0"/>
        </elevationProfile>
        <lateralProfile/>
        <lanes>
            <laneSection s="0">
                <center>
                    <lane id="0" type="none" level="true">
                        <link/>
                        <roadMark sOffset="0" type="solid" weight="standard" color="standard" width="0.13"/>
                    </lane>
                </center>
                <right>
                    <lane id="-1" type="driving" level="true">
                        <link/>
                        <width sOffset="0" a="5.38" b="0" c="0" d="0"/>
                        <roadMark sOffset="0" type="broken" weight="standard" color="standard" width="0.13"/>
                        <speed sOffset="0" max="13.90"/>
                    </lane>
                    <lane id="-2" type="driving" level="true">
                        <link/>
                        <width sOffset="0" a="5.38" b="0" c="0" d="0"/>
                        <roadMark sOffset="0" type="solid" weight="standard" color="standard" width="0.13"/>
                        <speed sOffset="0" max="13.90"/>
                    </lane>
                 </right>
            </laneSection>
        </lanes>
        <objects/>
        <signals/>
    </road>
    <road name="" length="141.08212841" id="233" junction="-1">
        <link>
            <predecessor elementType="junction" elementId="6"/>
            <successor elementType="junction" elementId="7"/>
        </link>
        <type s="0" type="town"/>
        <planView>
            <geometry s="0.00000000" x="250.13531843" y="0.01659716" hdg="0.04871426" length="8.69499649">
                <line/>
            </geometry>
            <geometry s="8.69499649" x="258.82000000" y="0.44000000" hdg="0.04871426" length="8.84146758">
                <paramPoly3 aU="0.00000000" bU="6.62711476" cU="6.56938129" dU="-4.40356086" aV="0.00000000" bV="0.00000000" cV="1.64490088" dV="-0.77203737" pRange="normalized"/>
            </geometry>
            <geometry s="17.53646407" x="267.56000000" y="1.74000000" hdg="0.19617320" length="8.83536645">
                <paramPoly3 aU="0.00000000" bU="6.62486085" cU="6.62565837" dU="-4.42777150" aV="0.00000000" bV="0.00000000" cV="0.63520019" dV="-0.20668795" pRange="normalized"/>
            </geometry>
            <geometry s="26.37183052" x="276.13000000" y="3.88000000" hdg="0.29449762" length="8.83037315">
                <paramPoly3 aU="0.00000000" bU="6.62112387" cU="6.62010351" dU="-4.42401658" aV="0.00000000" bV="-0.00000000" cV="0.67037621" dV="-0.23072433" pRange="normalized"/>
            </geometry>
            <geometry s="35.20220368" x="284.44000000" y="6.86000000" hdg="0.39261105" length="8.83698421">
                <paramPoly3 aU="0.00000000" bU="6.62607067" cU="6.62727887" dU="-4.42887302" aV="0.00000000" bV="0.00000000" cV="0.62744620" dV="-0.20128414" pRange="normalized"/>
            </geometry>
            <geometry s="44.03918789" x="292.43000000" y="10.63000000" hdg="0.49102413" length="8.83441568">
                <paramPoly3 aU="0.00000000" bU="6.62413485" cU="6.62303701" dU="-4.42610607" aV="0.00000000" bV="-0.00000000" cV="0.67603441" dV="-0.23309160" pRange="normalized"/>
            </geometry>
            <geometry s="52.87360357" x="300.00000000" y="15.18000000" hdg="0.58973216" length="8.83029170">
                <paramPoly3 aU="0.00000000" bU="6.62108988" cU="6.62119796" dU="-4.42457390" aV="0.00000000" bV="0.00000000" cV="0.64222586" dV="-0.21371580" pRange="normalized"/>
            </geometry>
            <geometry s="61.70389527" x="307.09000000" y="20.44000000" hdg="0.68704556" length="8.83777813">
                <paramPoly3 aU="0.00000000" bU="6.62668186" cU="6.62700186" dU="-4.42858945" aV="0.00000000" bV="0.00000000" cV="0.64267813" dV="-0.21243277" pRange="normalized"/>
            </geometry>
            <geometry s="70.54167340" x="313.64000000" y="26.37000000" hdg="0.78499736" length="8.83040173">
                <paramPoly3 aU="0.00000000" bU="6.62112387" cU="6.62123147" dU="-4.42490736" aV="0.00000000" bV="-0.00000000" cV="0.65181139" dV="-0.21694217" pRange="normalized"/>
            </geometry>
            <geometry s="79.37207514" x="319.57000000" y="32.91000000" hdg="0.88375076" length="8.83836216">
                <paramPoly3 aU="0.00000000" bU="6.62711476" cU="6.62660038" dU="-4.42835446" aV="0.00000000" bV="-0.00000000" cV="0.66068795" dV="-0.22410003" pRange="normalized"/>
            </geometry>
            <geometry s="88.21043730" x="324.83000000" y="40.01000000" hdg="0.98185048" length="8.82923118">
                <paramPoly3 aU="0.00000000" bU="6.62027426" cU="6.62056581" dU="-4.42428202" aV="0.00000000" bV="0.00000000" cV="0.64243250" dV="-0.21254396" pRange="normalized"/>
            </geometry>
            <geometry s="97.03966847" x="329.37000000" y="47.58000000" hdg="1.07977219" length="8.84125668">
                <paramPoly3 aU="0.00000000" bU="6.62927456" cU="6.62934939" dU="-4.43025853" aV="0.00000000" bV="0.00000000" cV="0.65101814" dV="-0.21689384" pRange="normalized"/>
            </geometry>
            <geometry s="105.88092516" x="333.15000000" y="55.57000000" hdg="1.17818528" length="8.82700152">
                <paramPoly3 aU="0.00000000" bU="6.61859596" cU="6.61818390" dU="-4.42273279" aV="0.00000000" bV="-0.00000000" cV="0.65787175" dV="-0.22247056" pRange="normalized"/>
            </geometry>
            <geometry s="114.70792668" x="336.12000000" y="63.88000000" hdg="1.27629871" length="8.83776990">
                <paramPoly3 aU="0.00000000" bU="6.62668186" cU="6.62690715" dU="-4.42848680" aV="0.00000000" bV="-0.00000000" cV="0.64339662" dV="-0.21331422" pRange="normalized"/>
            </geometry>
            <geometry s="123.54569657" x="338.27000000" y="72.45000000" hdg="1.37406743" length="8.84149800">
                <paramPoly3 aU="0.00000000" bU="6.62711476" cU="6.66766876" dU="-4.46926653" aV="0.00000000" bV="-0.00000000" cV="0.32291751" dV="0.11049905" pRange="normalized"/>
            </geometry>
            <geometry s="132.38719457" x="339.57000000" y="81.19000000" hdg="1.52208206" length="8.69493384">
                <line/>
            </geometry>
        </planView>
        <elevationProfile>
            <elevation s="0" a="0.00" b="0" c="0" d="0"/>
        </elevationProfile>
        <lateralProfile/>
        <lanes>
            <laneSection s="0">
                <center>
                    <lane id="0" type="none" level="true">
                        <link/>
                        <roadMark sOffset="0" type="solid" weight="standard" color="standard" width="0.13"/>
                    </lane>
                </center>
                <right>
                    <lane id="-1" type="driving" level="true">
                        <link/>
                        <width sOffset="0" a="5.38" b="0" c="0" d="0"/>
                        <roadMark sOffset="0" type="broken" weight="standard" color="standard" width="0.13"/>
                        <speed sOffset="0" max="13.90"/>
                    </lane>
                    <lane id="-2" type="driving" level="true">
                        <link/>
                        <width sOffset="0" a="5.38" b="0" c="0" d="0"/>
                        <roadMark sOffset="0" type="solid" weight="standard" color="standard" width="0.13"/>
                        <speed sOffset="0" max="13.90"/>
                    </lane>
                 </right>
            </laneSection>
        </lanes>
        <objects/>
        <signals/>
    </road>
    <road name="" length="17.61587397" id="234" junction="-1">
        <link>
            <predecessor elementType="junction" elementId="8"/>
            <successor elementType="junction" elementId="9"/>
        </link>
        <type s="0" type="town"/>
        <planView>
            <geometry s="0.00000000" x="251.63412603" y="280.51000000" hdg="0.00000000" length="17.61587397">
                <line/>
            </geometry>
        </planView>
        <elevationProfile>
            <elevation s="0" a="0.00" b="0" c="0" d="0"/>
        </elevationProfile>
        <lateralProfile/>
        <lanes>
            <laneSection s="0">
                <center>
                    <lane id="0" type="none" level="true">
                        <link/>
                        <roadMark sOffset="0" type="solid" weight="standard" color="standard" width="0.13"/>
                    </lane>
                </center>
                <right>
                    <lane id="-1" type="driving" level="true">
                        <link/>
                        <width sOffset="0" a="5.38" b="0" c="0" d="0"/>
                        <roadMark sOffset="0" type="broken" weight="standard" color="standard" width="0.13"/>
                        <speed sOffset="0" max="13.90"/>
                    </lane>
                    <lane id="-2" type="driving" level="true">
                        <link/>
                        <width sOffset="0" a="5.38" b="0" c="0" d="0"/>
                        <roadMark sOffset="0" type="solid" weight="standard" color="standard" width="0.13"/>
                        <speed sOffset="0" max="13.90"/>
                    </lane>
                 </right>
            </laneSection>
        </lanes>
        <objects/>
        <signals/>
    </road>
    <road name="" length="249.86452105" id="235" junction="-1">
        <link>
            <predecessor elementType="junction" elementId="10"/>
            <successor elementType="junction" elementId="6"/>
        </link>
        <type s="0" type="town"/>
        <planView>
            <geometry s="0.00000000" x="0.00000000" y="0.00000000" hdg="0.00004000" length="249.86452105">
                <line/>
            </geometry>
        </planView>
        <elevationProfile>
            <elevation s="0" a="0.00" b="0" c="0" d="0"/>
        </elevationProfile>
        <lateralProfile/>
        <lanes>
            <laneSection s="0">
                <center>
                    <lane id="0" type="none" level="true">
                        <link/>
                        <roadMark sOffset="0" type="solid" weight="standard" color="standard" width="0.13"/>
                    </lane>
                </center>
                <right>
                    <lane id="-1" type="driving" level="true">
                        <link/>
                        <width sOffset="0" a="5.38" b="0" c="0" d="0"/>
                        <roadMark sOffset="0" type="broken" weight="standard" color="standard" width="0.13"/>
                        <speed sOffset="0" max="13.90"/>
                    </lane>
                    <lane id="-2" type="driving" level="true">
                        <link/>
                        <width sOffset="0" a="5.38" b="0" c="0" d="0"/>
                        <roadMark sOffset="0" type="solid" weight="standard" color="standard" width="0.13"/>
                        <speed sOffset="0" max="13.90"/>
                    </lane>
                 </right>
            </laneSection>
        </lanes>
        <objects/>
        <signals/>
    </road>
    <road name="" length="149.59359720" id="236" junction="-1">
        <link>
            <predecessor elementType="junction" elementId="7"/>
            <successor elementType="junction" elementId="11"/>
        </link>
        <type s="0" type="town"/>
        <planView>
            <geometry s="0.00000000" x="340.00000000" y="90.14554180" hdg="1.57079633" length="149.59359720">
                <line/>
            </geometry>
        </planView>
        <elevationProfile>
            <elevation s="0" a="0.00" b="0" c="0" d="0"/>
        </elevationProfile>
        <lateralProfile/>
        <lanes>
            <laneSection s="0">
                <center>
                    <lane id="0" type="none" level="true">
                        <link/>
                        <roadMark sOffset="0" type="solid" weight="standard" color="standard" width="0.13"/>
                    </lane>
                </center>
                <right>
                    <lane id="-1" type="driving" level="true">
                        <link/>
                        <width sOffset="0" a="5.38" b="0" c="0" d="0"/>
                        <roadMark sOffset="0" type="broken" weight="standard" color="standard" width="0.13"/>
                        <speed sOffset="0" max="13.90"/>
                    </lane>
                    <lane id="-2" type="driving" level="true">
                        <link/>
                        <width sOffset="0" a="5.38" b="0" c="0" d="0"/>
                        <roadMark sOffset="0" type="solid" weight="standard" color="standard" width="0.13"/>
                        <speed sOffset="0" max="13.90"/>
                    </lane>
                 </right>
            </laneSection>
        </lanes>
        <objects/>
        <signals/>
    </road>
    <road name="" length="199.72913900" id="237" junction="-1">
        <link>
            <predecessor elementType="junction" elementId="12"/>
            <successor elementType="junction" elementId="13"/>
        </link>
        <type s="0" type="town"/>
        <planView>
            <geometry s="0.00000000" x="39.50000000" y="418.51000000" hdg="0.00000000" length="199.72913900">
                <line/>
            </geometry>
        </planView>
        <elevationProfile>
            <elevation s="0" a="0.00" b="0" c="0" d="0"/>
        </elevationProfile>
        <lateralProfile/>
        <lanes>
            <laneSection s="0">
                <center>
                    <lane id="0" type="none" level="true">
                        <link/>
                        <roadMark sOffset="0" type="solid" weight="standard" color="standard" width="0.13"/>
                    </lane>
                </center>
                <right>
                    <lane id="-1" type="driving" level="true">
                        <link/>
                        <width sOffset="0" a="5.38" b="0" c="0" d="0"/>
                        <roadMark sOffset="0" type="broken" weight="standard" color="standard" width="0.13"/>
                        <speed sOffset="0" max="13.90"/>
                    </lane>
                    <lane id="-2" type="driving" level="true">
                        <link/>
                        <width sOffset="0" a="5.38" b="0" c="0" d="0"/>
                        <roadMark sOffset="0" type="solid" weight="standard" color="standard" width="0.13"/>
                        <speed sOffset="0" max="13.90"/>
                    </lane>
                 </right>
            </laneSection>
        </lanes>
        <objects/>
        <signals/>
    </road>
    <road name="" length="86.47913900" id="238" junction="-1">
        <link>
            <predecessor elementType="junction" elementId="14"/>
            <successor elementType="junction" elementId="9"/>
        </link>
        <type s="0" type="town"/>
        <planView>
            <geometry s="0.00000000" x="280.00000000" y="377.73913900" hdg="-1.57079633" length="86.47913900">
                <line/>
            </geometry>
        </planView>
        <elevationProfile>
            <elevation s="0" a="0.00" b="0" c="0" d="0"/>
        </elevationProfile>
        <lateralProfile/>
        <lanes>
            <laneSection s="0">
                <center>
                    <lane id="0" type="none" level="true">
                        <link/>
                        <roadMark sOffset="0" type="solid" weight="standard" color="standard" width="0.13"/>
                    </lane>